Version 4
SHEET 1 1044 680
WIRE 944 -144 336 -144
WIRE 720 -96 16 -96
WIRE 944 -96 944 -144
WIRE 720 16 720 -16
WIRE 944 16 944 -16
WIRE 16 32 16 -96
WIRE 336 32 336 -144
WIRE 720 128 720 96
WIRE 848 128 720 128
WIRE 944 128 944 96
WIRE 944 128 848 128
WIRE 1024 128 944 128
WIRE 848 160 848 128
WIRE 1024 192 1024 128
WIRE 16 208 16 112
WIRE 16 208 -32 208
WIRE 192 208 16 208
WIRE 336 208 336 112
WIRE 336 208 192 208
WIRE 848 272 848 240
WIRE -32 288 -32 208
WIRE 192 336 192 208
WIRE 192 448 192 416
WIRE 848 448 848 352
WIRE 848 448 192 448
FLAG -32 288 0
FLAG 1024 192 0
SYMBOL Misc\\signal 16 16 R0
WINDOW 123 24 132 Left 2
WINDOW 39 0 0 Left 2
SYMATTR Value2 AC 200 0
SYMATTR InstName V1
SYMATTR Value ""
SYMBOL Misc\\signal 336 16 R0
WINDOW 123 24 132 Left 2
WINDOW 39 0 0 Left 2
SYMATTR Value2 AC 200 120
SYMATTR InstName V2
SYMATTR Value ""
SYMBOL Misc\\signal 192 432 R180
WINDOW 0 24 104 Left 2
WINDOW 3 24 16 Left 2
WINDOW 123 24 -12 Left 2
WINDOW 39 0 0 Left 2
SYMATTR InstName V3
SYMATTR Value ""
SYMATTR Value2 AC 200 240
SYMBOL ind 704 0 R0
SYMATTR InstName L1
SYMATTR Value 0.23
SYMBOL ind 928 0 R0
SYMATTR InstName L2
SYMATTR Value 0.23
SYMBOL ind 832 144 R0
SYMATTR InstName L3
SYMATTR Value 0.23
SYMBOL res 704 -112 R0
SYMATTR InstName R1
SYMATTR Value 50
SYMBOL res 928 -112 R0
SYMATTR InstName R2
SYMATTR Value 50
SYMBOL res 832 256 R0
SYMATTR InstName R3
SYMATTR Value 50
TEXT -16 464 Left 2 !.ac lin 100 1 70
