Version 4
SHEET 1 1504 980
WIRE 32 -832 -544 -1152
WIRE -768 -784 -1344 -1104
WIRE 16 -752 -560 -1072
WIRE -240 -672 -816 -992
WIRE -32 -672 -608 -992
WIRE 528 -672 -48 -992
WIRE -80 -640 -656 -960
WIRE -192 -544 -768 -864
WIRE 448 -544 -128 -864
WIRE -992 -528 -1568 -848
WIRE -784 -512 -1360 -832
WIRE 672 -512 96 -832
WIRE 416 -480 -160 -800
WIRE -960 -448 -1536 -768
WIRE -496 -448 -1072 -768
WIRE 96 -448 -480 -768
WIRE 304 -448 -272 -768
WIRE -1136 -432 -1712 -752
WIRE -176 -400 -752 -720
WIRE 32 -384 -544 -704
WIRE -608 -368 -1184 -688
WIRE 848 -368 272 -688
WIRE -880 -336 -1456 -656
WIRE 1072 -336 496 -656
WIRE 288 -304 -288 -624
WIRE -144 -288 -720 -608
WIRE 112 -288 -464 -608
WIRE -32 -272 -608 -592
WIRE 496 -272 -80 -592
WIRE 848 -272 272 -592
WIRE -1024 -256 -1600 -576
WIRE -256 -240 -832 -560
WIRE 800 -208 224 -528
WIRE -352 -160 -928 -480
WIRE -288 -160 -864 -480
WIRE -1232 -144 -1808 -464
WIRE -432 -128 -1008 -448
WIRE 1232 -128 656 -448
WIRE -976 -112 -1552 -432
WIRE -624 -96 -1200 -416
WIRE -752 -32 -1328 -352
WIRE -896 -16 -1472 -336
WIRE -352 -16 -928 -336
WIRE -560 32 -1136 -288
WIRE -1136 64 -1712 -256
WIRE -336 112 -912 -208
WIRE -800 160 -1376 -160
WIRE -1088 240 -1664 -80
WIRE -320 272 -896 -48
WIRE -1280 288 -1856 -32
WIRE -400 304 -976 -16
WIRE -1056 336 -1632 16
WIRE -768 336 -1344 16
WIRE -288 416 -864 96
WIRE -448 448 -1024 128
WIRE -416 608 -992 288
WIRE -592 704 -1168 384
WIRE -288 768 -864 448
WIRE 224 864 -352 544
WIRE -48 960 -624 640
WIRE 240 976 -336 656
SYMBOL e2 160 64 R0
SYMATTR InstName E1
SYMBOL e2 288 80 R0
SYMATTR InstName E2
SYMBOL e2 240 192 R0
SYMATTR InstName E3
SYMBOL e2 128 176 R0
SYMATTR InstName E4
SYMBOL e2 144 128 R0
SYMATTR InstName E5
SYMBOL e2 192 112 R0
SYMATTR InstName E6
SYMBOL e2 256 112 R0
SYMATTR InstName E7
SYMBOL e2 256 96 R0
SYMATTR InstName E8
SYMBOL e2 192 64 R0
SYMATTR InstName E9
SYMBOL e2 160 96 R0
SYMATTR InstName E10
SYMBOL e2 128 112 R0
SYMATTR InstName E11
SYMBOL e2 96 48 R0
SYMATTR InstName E12
SYMBOL e2 176 64 R0
SYMATTR InstName E13
SYMBOL e2 272 48 R0
SYMATTR InstName E14
SYMBOL e2 208 16 R0
SYMATTR InstName E15
SYMBOL e2 192 80 R0
SYMATTR InstName E16
SYMBOL e2 224 144 R0
SYMATTR InstName E17
SYMBOL e2 288 96 R0
SYMATTR InstName E18
SYMBOL e2 192 176 R0
SYMATTR InstName E19
SYMBOL e2 208 160 R0
SYMATTR InstName E20
SYMBOL e2 224 112 R0
SYMATTR InstName E21
SYMBOL e2 96 128 R0
SYMATTR InstName E22
SYMBOL e2 112 160 R0
SYMATTR InstName E23
SYMBOL e2 160 176 R0
SYMATTR InstName E24
SYMBOL e2 192 160 R0
SYMATTR InstName E25
SYMBOL e2 128 192 R0
SYMATTR InstName E26
SYMBOL e2 64 176 R0
SYMATTR InstName E27
SYMBOL e2 80 128 R0
SYMATTR InstName E28
SYMBOL e2 144 144 R0
SYMATTR InstName E29
SYMBOL e2 96 144 R0
SYMATTR InstName E30
SYMBOL e2 64 112 R0
SYMATTR InstName E31
SYMBOL e2 96 96 R0
SYMATTR InstName E32
SYMBOL e2 96 80 R0
SYMATTR InstName E33
SYMBOL e2 192 96 R0
SYMATTR InstName E34
SYMBOL e2 160 48 R0
SYMATTR InstName E35
SYMBOL e2 192 32 R0
SYMATTR InstName E36
SYMBOL e2 144 32 R0
SYMATTR InstName E37
SYMBOL e2 176 48 R0
SYMATTR InstName E38
SYMBOL e2 128 80 R0
SYMATTR InstName E39
SYMBOL e2 96 32 R0
SYMATTR InstName E40
SYMBOL e2 128 16 R0
SYMATTR InstName E41
SYMBOL e2 32 16 R0
SYMATTR InstName E42
SYMBOL e2 64 0 R0
SYMATTR InstName E43
SYMBOL e2 128 16 R0
SYMATTR InstName E44
SYMBOL e2 144 32 R0
SYMATTR InstName E45
SYMBOL e2 224 -16 R0
SYMATTR InstName E46
SYMBOL e2 208 -16 R0
SYMATTR InstName E47
SYMBOL e2 144 -32 R0
SYMATTR InstName E48
SYMBOL e2 112 -16 R0
SYMATTR InstName E49
SYMBOL e2 80 32 R0
SYMATTR InstName E50
SYMBOL e2 96 64 R0
SYMATTR InstName E51
SYMBOL e2 128 64 R0
SYMATTR InstName E52
SYMBOL e2 80 16 R0
SYMATTR InstName E53
SYMBOL e2 48 48 R0
SYMATTR InstName E54
SYMBOL e2 32 64 R0
SYMATTR InstName E55
SYMBOL e2 48 64 R0
SYMATTR InstName E56
SYMBOL e2 64 64 R0
SYMATTR InstName E57
SYMBOL e2 80 64 R0
SYMATTR InstName E58
SYMBOL e2 64 112 R0
SYMATTR InstName E59
SYMBOL e2 48 112 R0
SYMATTR InstName E60
SYMBOL e2 32 96 R0
SYMATTR InstName E61
SYMBOL e2 32 80 R0
SYMATTR InstName E62
SYMBOL e2 48 96 R0
SYMATTR InstName E63
SYMBOL e2 64 96 R0
SYMATTR InstName E64
SYMBOL e2 48 112 R0
SYMATTR InstName E65
SYMBOL e2 32 160 R0
SYMATTR InstName E66
SYMBOL e2 32 176 R0
SYMATTR InstName E67
SYMBOL e2 48 192 R0
SYMATTR InstName E68
SYMBOL e2 80 192 R0
SYMATTR InstName E69
SYMBOL e2 80 192 R0
SYMATTR InstName E70
SYMBOL e2 96 192 R0
SYMATTR InstName E71
SYMBOL e2 112 192 R0
SYMATTR InstName E72
SYMBOL e2 144 192 R0
SYMATTR InstName E73
SYMBOL e2 144 192 R0
SYMATTR InstName E74
SYMBOL e2 160 208 R0
SYMATTR InstName E75
SYMBOL e2 160 208 R0
SYMATTR InstName E76
SYMBOL e2 192 192 R0
SYMATTR InstName E77
SYMBOL e2 208 176 R0
SYMATTR InstName E78
SYMBOL e2 224 192 R0
SYMATTR InstName E79
SYMBOL e2 224 208 R0
SYMATTR InstName E80
SYMBOL e2 256 208 R0
SYMATTR InstName E81
SYMBOL e2 272 208 R0
SYMATTR InstName E82
SYMBOL e2 256 240 R0
SYMATTR InstName E83
SYMBOL e2 256 240 R0
SYMATTR InstName E84
SYMBOL e2 304 224 R0
SYMATTR InstName E85
SYMBOL e2 272 192 R0
SYMATTR InstName E86
SYMBOL e2 272 208 R0
SYMATTR InstName E87
SYMBOL e2 336 208 R0
SYMATTR InstName E88
SYMBOL e2 320 176 R0
SYMATTR InstName E89
SYMBOL e2 288 208 R0
SYMATTR InstName E90
SYMBOL e2 336 144 R0
SYMATTR InstName E91
SYMBOL e2 304 176 R0
SYMATTR InstName E92
SYMBOL e2 256 128 R0
SYMATTR InstName E93
SYMBOL e2 336 128 R0
SYMATTR InstName E94
SYMBOL e2 304 144 R0
SYMATTR InstName E95
SYMBOL e2 272 112 R0
SYMATTR InstName E96
SYMBOL e2 304 112 R0
SYMATTR InstName E97
SYMBOL e2 256 96 R0
SYMATTR InstName E98
SYMBOL e2 272 128 R0
SYMATTR InstName E99
SYMBOL e2 304 128 R0
SYMATTR InstName E100
SYMBOL e2 272 64 R0
SYMATTR InstName E101
SYMBOL e2 224 80 R0
SYMATTR InstName E102
SYMBOL e2 240 112 R0
SYMATTR InstName E103
SYMBOL e2 240 144 R0
SYMATTR InstName E104
SYMBOL e2 240 176 R0
SYMATTR InstName E105
SYMBOL e2 240 176 R0
SYMATTR InstName E106
SYMBOL e2 240 176 R0
SYMATTR InstName E107
SYMBOL e2 192 144 R0
SYMATTR InstName E108
SYMBOL e2 208 128 R0
SYMATTR InstName E109
SYMBOL e2 224 128 R0
SYMATTR InstName E110
SYMBOL e2 208 112 R0
SYMATTR InstName E111
SYMBOL e2 224 96 R0
SYMATTR InstName E112
SYMBOL e2 256 80 R0
SYMATTR InstName E113
SYMBOL e2 256 32 R0
SYMATTR InstName E114
SYMBOL e2 224 16 R0
SYMATTR InstName E115
SYMBOL e2 208 48 R0
SYMATTR InstName E116
SYMBOL e2 240 48 R0
SYMATTR InstName E117
SYMBOL e2 288 48 R0
SYMATTR InstName E118
SYMBOL e2 320 48 R0
SYMATTR InstName E119
SYMBOL e2 336 80 R0
SYMATTR InstName E120
SYMBOL e2 336 112 R0
SYMATTR InstName E121
SYMBOL e2 320 80 R0
SYMATTR InstName E122
SYMBOL e2 320 64 R0
SYMATTR InstName E123
SYMBOL e2 320 16 R0
SYMATTR InstName E124
SYMBOL e2 320 -16 R0
SYMATTR InstName E125
SYMBOL e2 272 -16 R0
SYMATTR InstName E126
SYMBOL e2 192 -48 R0
SYMATTR InstName E127
SYMBOL e2 144 -48 R0
SYMATTR InstName E128
SYMBOL e2 80 -48 R0
SYMATTR InstName E129
SYMBOL e2 48 -32 R0
SYMATTR InstName E130
SYMBOL e2 32 0 R0
SYMATTR InstName E131
SYMBOL e2 128 32 R0
SYMATTR InstName E132
SYMBOL e2 176 16 R0
SYMATTR InstName E133
SYMBOL e2 192 -16 R0
SYMATTR InstName E134
SYMBOL e2 128 -16 R0
SYMATTR InstName E135
SYMBOL e2 208 0 R0
SYMATTR InstName E136
SYMBOL e2 304 16 R0
SYMATTR InstName E137
SYMBOL e2 288 0 R0
SYMATTR InstName E138
SYMBOL e2 256 0 R0
SYMATTR InstName E139
SYMBOL e2 256 -32 R0
SYMATTR InstName E140
SYMBOL e2 224 -32 R0
SYMATTR InstName E141
SYMBOL e2 176 -32 R0
SYMATTR InstName E142
SYMBOL e2 160 -16 R0
SYMATTR InstName E143
SYMBOL e2 144 -16 R0
SYMATTR InstName E144
SYMBOL e2 144 0 R0
SYMATTR InstName E145
SYMBOL e2 160 16 R0
SYMATTR InstName E146
SYMBOL e2 112 144 R0
SYMATTR InstName E147
SYMBOL e2 160 176 R0
SYMATTR InstName E148
SYMBOL e2 208 192 R0
SYMATTR InstName E149
SYMBOL e2 160 208 R0
SYMATTR InstName E150
SYMBOL e2 192 256 R0
SYMATTR InstName E151
SYMBOL e2 144 272 R0
SYMATTR InstName E152
SYMBOL e2 96 256 R0
SYMATTR InstName E153
SYMBOL e2 64 240 R0
SYMATTR InstName E154
SYMBOL e2 112 224 R0
SYMATTR InstName E155
SYMBOL e2 128 224 R0
SYMATTR InstName E156
SYMBOL e2 160 240 R0
SYMATTR InstName E157
SYMBOL e2 240 240 R0
SYMATTR InstName E158
SYMBOL e2 272 240 R0
SYMATTR InstName E159
SYMBOL e2 320 208 R0
SYMATTR InstName E160
SYMBOL e2 336 176 R0
SYMATTR InstName E161
SYMBOL e2 320 128 R0
SYMATTR InstName E162
SYMBOL e2 64 272 R0
SYMATTR InstName E163
SYMBOL e2 64 224 R0
SYMATTR InstName E164
SYMBOL e2 16 272 R0
SYMATTR InstName E165
SYMBOL e2 32 192 R0
SYMATTR InstName E166
SYMBOL e2 144 224 R0
SYMATTR InstName E167
SYMBOL e2 224 272 R0
SYMATTR InstName E168
SYMBOL e2 272 272 R0
SYMATTR InstName E169
SYMBOL e2 16 224 R0
SYMATTR InstName E170
SYMBOL e2 64 144 R0
SYMATTR InstName E171
SYMBOL e2 48 48 R0
SYMATTR InstName E172
SYMBOL e2 128 -32 R0
SYMATTR InstName E173
SYMBOL e2 208 48 R0
SYMATTR InstName E174
SYMBOL e2 192 96 R0
SYMATTR InstName E175
SYMBOL e2 176 144 R0
SYMATTR InstName E176
SYMBOL e2 160 160 R0
SYMATTR InstName E177
SYMBOL e2 128 176 R0
SYMATTR InstName E178
SYMBOL e2 160 208 R0
SYMATTR InstName E179
SYMBOL e2 160 224 R0
SYMATTR InstName E180
SYMBOL e2 176 224 R0
SYMATTR InstName E181
SYMBOL e2 192 240 R0
SYMATTR InstName E182
SYMBOL e2 208 256 R0
SYMATTR InstName E183
SYMBOL e2 224 256 R0
SYMATTR InstName E184
SYMBOL e2 224 272 R0
SYMATTR InstName E185
SYMBOL e2 256 272 R0
SYMATTR InstName E186
SYMBOL e2 304 256 R0
SYMATTR InstName E187
SYMBOL e2 336 272 R0
SYMATTR InstName E188
SYMBOL e2 336 240 R0
SYMATTR InstName E189
SYMBOL e2 288 256 R0
SYMATTR InstName E190
SYMBOL e2 320 240 R0
SYMATTR InstName E191
SYMBOL e2 304 128 R0
SYMATTR InstName E192
SYMBOL e2 256 80 R0
SYMATTR InstName E193
SYMBOL e2 224 80 R0
SYMATTR InstName E194
SYMBOL e2 176 80 R0
SYMATTR InstName E195
SYMBOL e2 144 48 R0
SYMATTR InstName E196
SYMBOL e2 128 128 R0
SYMATTR InstName E197
SYMBOL e2 144 128 R0
SYMATTR InstName E198
SYMBOL e2 208 80 R0
SYMATTR InstName E199
SYMBOL e2 256 48 R0
SYMATTR InstName E200
SYMBOL e2 272 0 R0
SYMATTR InstName E201
SYMBOL e2 288 -16 R0
SYMATTR InstName E202
SYMBOL e2 304 -16 R0
SYMATTR InstName E203
SYMBOL e2 320 -16 R0
SYMATTR InstName E204
SYMBOL e2 336 -32 R0
SYMATTR InstName E205
SYMBOL e2 336 -32 R0
SYMATTR InstName E206
SYMBOL e2 352 -32 R0
SYMATTR InstName E207
SYMBOL e2 368 0 R0
SYMATTR InstName E208
SYMBOL e2 352 16 R0
SYMATTR InstName E209
SYMBOL e2 352 80 R0
SYMATTR InstName E210
SYMBOL e2 320 112 R0
SYMATTR InstName E211
SYMBOL e2 224 160 R0
SYMATTR InstName E212
SYMBOL e2 128 224 R0
SYMATTR InstName E213
SYMBOL e2 112 288 R0
SYMATTR InstName E214
SYMBOL e2 144 272 R0
SYMATTR InstName E215
SYMBOL e2 176 272 R0
SYMATTR InstName E216
SYMBOL e2 128 256 R0
SYMATTR InstName E217
SYMBOL e2 64 240 R0
SYMATTR InstName E218
SYMBOL e2 48 208 R0
SYMATTR InstName E219
SYMBOL e2 64 96 R0
SYMATTR InstName E220
SYMBOL e2 80 32 R0
SYMATTR InstName E221
SYMBOL e2 96 16 R0
SYMATTR InstName E222
SYMBOL e2 96 -48 R0
SYMATTR InstName E223
SYMBOL e2 96 -48 R0
SYMATTR InstName E224
SYMBOL e2 112 0 R0
SYMATTR InstName E225
SYMBOL e2 32 -16 R0
SYMATTR InstName E226
SYMBOL e2 32 -48 R0
SYMATTR InstName E227
SYMBOL e2 144 112 R0
SYMATTR InstName E228
SYMBOL e2 144 96 R0
SYMATTR InstName E229
SYMBOL e2 112 112 R0
SYMATTR InstName E230
SYMBOL e2 96 96 R0
SYMATTR InstName E231
SYMBOL e2 64 80 R0
SYMATTR InstName E232
SYMBOL e2 64 48 R0
SYMATTR InstName E233
SYMBOL e2 48 32 R0
SYMATTR InstName E234
SYMBOL e2 16 48 R0
SYMATTR InstName E235
SYMBOL e2 64 0 R0
SYMATTR InstName E236
SYMBOL e2 80 -32 R0
SYMATTR InstName E237
SYMBOL e2 64 -16 R0
SYMATTR InstName E238
SYMBOL e2 32 -32 R0
SYMATTR InstName E239
SYMBOL e2 208 -48 R0
SYMATTR InstName E240
SYMBOL e2 224 -48 R0
SYMATTR InstName E241
SYMBOL e2 256 -48 R0
SYMATTR InstName E242
SYMBOL e2 304 -48 R0
SYMATTR InstName E243
SYMBOL e2 304 -32 R0
SYMATTR InstName E244
SYMBOL e2 288 16 R0
SYMATTR InstName E245
SYMBOL e2 288 48 R0
SYMATTR InstName E246
SYMBOL e2 320 32 R0
SYMATTR InstName E247
SYMBOL e2 320 16 R0
SYMATTR InstName E248
SYMBOL e2 320 0 R0
SYMATTR InstName E249
SYMBOL e2 208 32 R0
SYMATTR InstName E250
SYMBOL e2 240 64 R0
SYMATTR InstName E251
SYMBOL e2 240 64 R0
SYMATTR InstName E252
SYMBOL e2 160 48 R0
SYMATTR InstName E253
SYMBOL e2 160 80 R0
SYMATTR InstName E254
SYMBOL e2 160 96 R0
SYMATTR InstName E255
SYMBOL e2 192 144 R0
SYMATTR InstName E256
SYMBOL e2 192 160 R0
SYMATTR InstName E257
SYMBOL e2 128 208 R0
SYMATTR InstName E258
SYMBOL e2 96 176 R0
SYMATTR InstName E259
SYMBOL e2 96 160 R0
SYMATTR InstName E260
SYMBOL e2 80 224 R0
SYMATTR InstName E261
SYMBOL e2 112 256 R0
SYMATTR InstName E262
SYMBOL e2 144 256 R0
SYMATTR InstName E263
SYMBOL e2 160 256 R0
SYMATTR InstName E264
SYMBOL e2 224 256 R0
SYMATTR InstName E265
SYMBOL e2 240 256 R0
SYMATTR InstName E266
SYMBOL e2 256 256 R0
SYMATTR InstName E267
SYMBOL e2 304 256 R0
SYMATTR InstName E268
SYMBOL e2 272 240 R0
SYMATTR InstName E269
SYMBOL e2 240 240 R0
SYMATTR InstName E270
SYMBOL e2 224 256 R0
SYMATTR InstName E271
SYMBOL e2 240 224 R0
SYMATTR InstName E272
SYMBOL e2 224 208 R0
SYMATTR InstName E273
SYMBOL e2 224 224 R0
SYMATTR InstName E274
SYMBOL e2 224 240 R0
SYMATTR InstName E275
SYMBOL e2 208 240 R0
SYMATTR InstName E276
SYMBOL e2 208 224 R0
SYMATTR InstName E277
SYMBOL e2 208 208 R0
SYMATTR InstName E278
SYMBOL e2 192 208 R0
SYMATTR InstName E279
SYMBOL e2 192 240 R0
SYMATTR InstName E280
SYMBOL e2 192 224 R0
SYMATTR InstName E281
SYMBOL e2 160 256 R0
SYMATTR InstName E282
SYMBOL e2 144 240 R0
SYMATTR InstName E283
SYMBOL e2 112 256 R0
SYMATTR InstName E284
SYMBOL e2 112 256 R0
SYMATTR InstName E285
SYMBOL e2 96 256 R0
SYMATTR InstName E286
SYMBOL e2 80 256 R0
SYMATTR InstName E287
SYMBOL e2 48 256 R0
SYMATTR InstName E288
SYMBOL e2 16 256 R0
SYMATTR InstName E289
SYMBOL e2 16 272 R0
SYMATTR InstName E290
SYMBOL e2 32 256 R0
SYMATTR InstName E291
SYMBOL e2 32 272 R0
SYMATTR InstName E292
SYMBOL e2 48 272 R0
SYMATTR InstName E293
SYMBOL e2 64 256 R0
SYMATTR InstName E294
SYMBOL e2 80 272 R0
SYMATTR InstName E295
SYMBOL e2 96 272 R0
SYMATTR InstName E296
SYMBOL e2 112 272 R0
SYMATTR InstName E297
SYMBOL e2 128 272 R0
SYMATTR InstName E298
SYMBOL e2 160 256 R0
SYMATTR InstName E299
SYMBOL e2 160 272 R0
SYMATTR InstName E300
SYMBOL e2 176 272 R0
SYMATTR InstName E301
SYMBOL e2 192 256 R0
SYMATTR InstName E302
SYMBOL e2 176 256 R0
SYMATTR InstName E303
SYMBOL e2 176 240 R0
SYMATTR InstName E304
SYMBOL e2 128 240 R0
SYMATTR InstName E305
SYMBOL e2 112 240 R0
SYMATTR InstName E306
SYMBOL e2 96 240 R0
SYMATTR InstName E307
SYMBOL e2 80 240 R0
SYMATTR InstName E308
SYMBOL e2 48 240 R0
SYMATTR InstName E309
SYMBOL e2 32 240 R0
SYMATTR InstName E310
SYMBOL e2 16 240 R0
SYMATTR InstName E311
SYMBOL e2 16 208 R0
SYMATTR InstName E312
SYMBOL e2 32 208 R0
SYMATTR InstName E313
SYMBOL e2 32 224 R0
SYMATTR InstName E314
SYMBOL e2 48 224 R0
SYMATTR InstName E315
SYMBOL e2 80 208 R0
SYMATTR InstName E316
SYMBOL e2 96 208 R0
SYMATTR InstName E317
SYMBOL e2 96 224 R0
SYMATTR InstName E318
SYMBOL e2 64 208 R0
SYMATTR InstName E319
SYMBOL e2 176 208 R0
SYMATTR InstName E320
SYMBOL e2 256 208 R0
SYMATTR InstName E321
SYMBOL e2 240 208 R0
SYMATTR InstName E322
SYMBOL e2 224 192 R0
SYMATTR InstName E323
SYMBOL e2 304 208 R0
SYMATTR InstName E324
SYMBOL e2 320 192 R0
SYMATTR InstName E325
SYMBOL e2 320 224 R0
SYMATTR InstName E326
SYMBOL e2 336 224 R0
SYMATTR InstName E327
SYMBOL e2 288 224 R0
SYMATTR InstName E328
SYMBOL e2 272 224 R0
SYMATTR InstName E329
SYMBOL e2 240 224 R0
SYMATTR InstName E330
SYMBOL e2 256 224 R0
SYMATTR InstName E331
SYMBOL e2 288 240 R0
SYMATTR InstName E332
SYMBOL e2 304 240 R0
SYMATTR InstName E333
SYMBOL e2 320 256 R0
SYMATTR InstName E334
SYMBOL e2 352 256 R0
SYMATTR InstName E335
SYMBOL e2 336 256 R0
SYMATTR InstName E336
SYMBOL e2 320 272 R0
SYMATTR InstName E337
SYMBOL e2 304 272 R0
SYMATTR InstName E338
SYMBOL e2 288 272 R0
SYMATTR InstName E339
SYMBOL e2 272 256 R0
SYMATTR InstName E340
SYMBOL e2 240 272 R0
SYMATTR InstName E341
SYMBOL e2 208 272 R0
SYMATTR InstName E342
SYMBOL e2 192 272 R0
SYMATTR InstName E343
SYMBOL e2 352 240 R0
SYMATTR InstName E344
SYMBOL e2 352 224 R0
SYMATTR InstName E345
SYMBOL e2 352 192 R0
SYMATTR InstName E346
SYMBOL e2 352 208 R0
SYMATTR InstName E347
SYMBOL e2 352 272 R0
SYMATTR InstName E348
SYMBOL e2 368 272 R0
SYMATTR InstName E349
SYMBOL e2 368 256 R0
SYMATTR InstName E350
SYMBOL e2 368 224 R0
SYMATTR InstName E351
SYMBOL e2 368 208 R0
SYMATTR InstName E352
SYMBOL e2 368 240 R0
SYMATTR InstName E353
SYMBOL e2 384 272 R0
SYMATTR InstName E354
SYMBOL e2 384 256 R0
SYMATTR InstName E355
SYMBOL e2 384 240 R0
SYMATTR InstName E356
SYMBOL e2 384 208 R0
SYMATTR InstName E357
SYMBOL e2 384 224 R0
SYMATTR InstName E358
SYMBOL e2 16 288 R0
SYMATTR InstName E359
SYMBOL e2 32 288 R0
SYMATTR InstName E360
SYMBOL e2 48 288 R0
SYMATTR InstName E361
SYMBOL e2 64 288 R0
SYMATTR InstName E362
SYMBOL e2 80 288 R0
SYMATTR InstName E363
SYMBOL e2 96 288 R0
SYMATTR InstName E364
SYMBOL e2 112 288 R0
SYMATTR InstName E365
SYMBOL e2 128 288 R0
SYMATTR InstName E366
SYMBOL e2 176 288 R0
SYMATTR InstName E367
SYMBOL e2 160 288 R0
SYMATTR InstName E368
SYMBOL e2 144 288 R0
SYMATTR InstName E369
SYMBOL e2 192 288 R0
SYMATTR InstName E370
SYMBOL e2 208 288 R0
SYMATTR InstName E371
SYMBOL e2 224 288 R0
SYMATTR InstName E372
SYMBOL e2 240 288 R0
SYMATTR InstName E373
SYMBOL e2 256 288 R0
SYMATTR InstName E374
SYMBOL e2 288 288 R0
SYMATTR InstName E375
SYMBOL e2 272 288 R0
SYMATTR InstName E376
SYMBOL e2 304 288 R0
SYMATTR InstName E377
SYMBOL e2 336 288 R0
SYMATTR InstName E378
SYMBOL e2 320 288 R0
SYMATTR InstName E379
SYMBOL e2 368 288 R0
SYMATTR InstName E380
SYMBOL e2 352 288 R0
SYMATTR InstName E381
SYMBOL e2 384 288 R0
SYMATTR InstName E382
SYMBOL e2 16 112 R0
SYMATTR InstName E383
SYMBOL e2 32 96 R0
SYMATTR InstName E384
SYMBOL e2 16 80 R0
SYMATTR InstName E385
SYMBOL e2 16 96 R0
SYMATTR InstName E386
SYMBOL e2 16 112 R0
SYMATTR InstName E387
SYMBOL e2 32 80 R0
SYMATTR InstName E388
SYMBOL e2 16 64 R0
SYMATTR InstName E389
SYMBOL e2 48 48 R0
SYMATTR InstName E390
SYMBOL e2 32 48 R0
SYMATTR InstName E391
SYMBOL e2 80 80 R0
SYMATTR InstName E392
SYMBOL e2 80 112 R0
SYMATTR InstName E393
SYMBOL e2 112 32 R0
SYMATTR InstName E394
SYMBOL e2 144 80 R0
SYMATTR InstName E395
SYMBOL e2 16 -64 R0
SYMATTR InstName E396
SYMBOL e2 16 -32 R0
SYMATTR InstName E397
SYMBOL e2 0 -48 R0
SYMATTR InstName E398
SYMBOL e2 32 -48 R0
SYMATTR InstName E399
SYMBOL e2 16 -64 R0
SYMATTR InstName E400
SYMBOL e2 -16 -64 R0
SYMATTR InstName E401
SYMBOL e2 32 -48 R0
SYMATTR InstName E402
SYMBOL e2 80 -64 R0
SYMATTR InstName E403
SYMBOL e2 112 -64 R0
SYMATTR InstName E404
SYMBOL e2 128 -48 R0
SYMATTR InstName E405
SYMBOL e2 128 -32 R0
SYMATTR InstName E406
SYMBOL e2 144 -48 R0
SYMATTR InstName E407
SYMBOL e2 160 -48 R0
SYMATTR InstName E408
SYMBOL e2 160 -16 R0
SYMATTR InstName E409
SYMBOL e2 192 -48 R0
SYMATTR InstName E410
SYMBOL e2 192 -64 R0
SYMATTR InstName E411
SYMBOL e2 176 -64 R0
SYMATTR InstName E412
SYMBOL e2 96 -80 R0
SYMATTR InstName E413
SYMBOL e2 64 -16 R0
SYMATTR InstName E414
SYMBOL e2 80 0 R0
SYMATTR InstName E415
SYMBOL e2 128 48 R0
SYMATTR InstName E416
SYMBOL e2 144 112 R0
SYMATTR InstName E417
SYMBOL e2 160 128 R0
SYMATTR InstName E418
SYMBOL e2 224 112 R0
SYMATTR InstName E419
SYMBOL e2 240 112 R0
SYMATTR InstName E420
SYMBOL e2 272 112 R0
SYMATTR InstName E421
SYMBOL e2 288 128 R0
SYMATTR InstName E422
SYMBOL e2 288 128 R0
SYMATTR InstName E423
SYMBOL e2 288 96 R0
SYMATTR InstName E424
SYMBOL e2 288 80 R0
SYMATTR InstName E425
SYMBOL e2 288 80 R0
SYMATTR InstName E426
SYMBOL e2 288 80 R0
SYMATTR InstName E427
SYMBOL e2 288 80 R0
SYMATTR InstName E428
SYMBOL e2 288 64 R0
SYMATTR InstName E429
SYMBOL e2 288 64 R0
SYMATTR InstName E430
SYMBOL e2 288 64 R0
SYMATTR InstName E431
SYMBOL e2 272 48 R0
SYMATTR InstName E432
SYMBOL e2 272 48 R0
SYMATTR InstName E433
SYMBOL e2 272 48 R0
SYMATTR InstName E434
SYMBOL e2 272 48 R0
SYMATTR InstName E435
SYMBOL e2 288 -16 R0
SYMATTR InstName E436
SYMBOL e2 288 -48 R0
SYMATTR InstName E437
SYMBOL e2 256 -80 R0
SYMATTR InstName E438
SYMBOL e2 240 -48 R0
SYMATTR InstName E439
SYMBOL e2 272 -64 R0
SYMATTR InstName E440
SYMBOL e2 240 -64 R0
SYMATTR InstName E441
SYMBOL e2 208 -48 R0
SYMATTR InstName E442
SYMBOL e2 192 -64 R0
SYMATTR InstName E443
SYMBOL e2 192 -80 R0
SYMATTR InstName E444
SYMBOL e2 144 -80 R0
SYMATTR InstName E445
SYMBOL e2 128 -80 R0
SYMATTR InstName E446
SYMBOL e2 64 -80 R0
SYMATTR InstName E447
SYMBOL e2 80 -64 R0
SYMATTR InstName E448
SYMBOL e2 96 -48 R0
SYMATTR InstName E449
SYMBOL e2 96 -16 R0
SYMATTR InstName E450
SYMBOL e2 96 0 R0
SYMATTR InstName E451
SYMBOL e2 96 0 R0
SYMATTR InstName E452
SYMBOL e2 48 16 R0
SYMATTR InstName E453
SYMBOL e2 48 0 R0
SYMATTR InstName E454
SYMBOL e2 32 -32 R0
SYMATTR InstName E455
SYMBOL e2 32 -48 R0
SYMATTR InstName E456
SYMBOL e2 16 -48 R0
SYMATTR InstName E457
SYMBOL e2 -16 -48 R0
SYMATTR InstName E458
SYMBOL e2 0 -16 R0
SYMATTR InstName E459
SYMBOL e2 16 -32 R0
SYMATTR InstName E460
SYMBOL e2 0 -32 R0
SYMATTR InstName E461
SYMBOL e2 -16 -32 R0
SYMATTR InstName E462
SYMBOL e2 -16 -16 R0
SYMATTR InstName E463
SYMBOL e2 -16 0 R0
SYMATTR InstName E464
SYMBOL e2 -16 16 R0
SYMATTR InstName E465
SYMBOL e2 -16 32 R0
SYMATTR InstName E466
SYMBOL e2 0 32 R0
SYMATTR InstName E467
SYMBOL e2 0 16 R0
SYMATTR InstName E468
SYMBOL e2 0 0 R0
SYMATTR InstName E469
SYMBOL e2 0 32 R0
SYMATTR InstName E470
SYMBOL e2 0 48 R0
SYMATTR InstName E471
SYMBOL e2 0 48 R0
SYMATTR InstName E472
SYMBOL e2 0 64 R0
SYMATTR InstName E473
SYMBOL e2 0 64 R0
SYMATTR InstName E474
SYMBOL e2 0 80 R0
SYMATTR InstName E475
SYMBOL e2 0 96 R0
SYMATTR InstName E476
SYMBOL e2 0 96 R0
SYMATTR InstName E477
SYMBOL e2 0 96 R0
SYMATTR InstName E478
SYMBOL e2 0 112 R0
SYMATTR InstName E479
SYMBOL e2 0 112 R0
SYMATTR InstName E480
SYMBOL e2 0 128 R0
SYMATTR InstName E481
SYMBOL e2 0 128 R0
SYMATTR InstName E482
SYMBOL e2 0 128 R0
SYMATTR InstName E483
SYMBOL e2 0 128 R0
SYMATTR InstName E484
SYMBOL e2 0 144 R0
SYMATTR InstName E485
SYMBOL e2 0 144 R0
SYMATTR InstName E486
SYMBOL e2 0 144 R0
SYMATTR InstName E487
SYMBOL e2 0 144 R0
SYMATTR InstName E488
SYMBOL e2 0 160 R0
SYMATTR InstName E489
SYMBOL e2 0 160 R0
SYMATTR InstName E490
SYMBOL e2 0 160 R0
SYMATTR InstName E491
SYMBOL e2 0 160 R0
SYMATTR InstName E492
SYMBOL e2 0 160 R0
SYMATTR InstName E493
SYMBOL e2 0 192 R0
SYMATTR InstName E494
SYMBOL e2 0 208 R0
SYMATTR InstName E495
SYMBOL e2 0 192 R0
SYMATTR InstName E496
SYMBOL e2 0 176 R0
SYMATTR InstName E497
SYMBOL e2 0 224 R0
SYMATTR InstName E498
SYMBOL e2 0 256 R0
SYMATTR InstName E499
SYMBOL e2 0 240 R0
SYMATTR InstName E500
SYMBOL e2 0 272 R0
SYMATTR InstName E501
SYMBOL e2 0 288 R0
SYMATTR InstName E502
SYMBOL e2 -16 48 R0
SYMATTR InstName E503
SYMBOL e2 -16 64 R0
SYMATTR InstName E504
SYMBOL e2 -16 80 R0
SYMATTR InstName E505
SYMBOL e2 -16 96 R0
SYMATTR InstName E506
SYMBOL e2 -16 128 R0
SYMATTR InstName E507
SYMBOL e2 0 112 R0
SYMATTR InstName E508
SYMBOL e2 -16 112 R0
SYMATTR InstName E509
SYMBOL e2 -16 144 R0
SYMATTR InstName E510
SYMBOL e2 -16 160 R0
SYMATTR InstName E511
SYMBOL e2 -16 176 R0
SYMATTR InstName E512
SYMBOL e2 -16 192 R0
SYMATTR InstName E513
SYMBOL e2 -16 224 R0
SYMATTR InstName E514
SYMBOL e2 0 208 R0
SYMATTR InstName E515
SYMBOL e2 -16 208 R0
SYMATTR InstName E516
SYMBOL e2 -16 224 R0
SYMATTR InstName E517
SYMBOL e2 -16 240 R0
SYMATTR InstName E518
SYMBOL e2 -16 256 R0
SYMATTR InstName E519
SYMBOL e2 -16 272 R0
SYMATTR InstName E520
SYMBOL e2 -16 288 R0
SYMATTR InstName E521
SYMBOL e2 368 144 R0
SYMATTR InstName E522
SYMBOL e2 368 176 R0
SYMATTR InstName E523
SYMBOL e2 368 192 R0
SYMATTR InstName E524
SYMBOL e2 384 176 R0
SYMATTR InstName E525
SYMBOL e2 352 160 R0
SYMATTR InstName E526
SYMBOL e2 320 160 R0
SYMATTR InstName E527
SYMBOL e2 272 160 R0
SYMATTR InstName E528
SYMBOL e2 288 144 R0
SYMATTR InstName E529
SYMBOL e2 352 144 R0
SYMATTR InstName E530
SYMBOL e2 368 144 R0
SYMATTR InstName E531
SYMBOL e2 368 128 R0
SYMATTR InstName E532
SYMBOL e2 368 112 R0
SYMATTR InstName E533
SYMBOL e2 368 96 R0
SYMATTR InstName E534
SYMBOL e2 352 96 R0
SYMATTR InstName E535
SYMBOL e2 320 96 R0
SYMATTR InstName E536
SYMBOL e2 368 128 R0
SYMATTR InstName E537
SYMBOL e2 368 160 R0
SYMATTR InstName E538
SYMBOL e2 384 144 R0
SYMATTR InstName E539
SYMBOL e2 384 144 R0
SYMATTR InstName E540
SYMBOL e2 384 160 R0
SYMATTR InstName E541
SYMBOL e2 384 160 R0
SYMATTR InstName E542
SYMBOL e2 384 192 R0
SYMATTR InstName E543
SYMBOL e2 384 112 R0
SYMATTR InstName E544
SYMBOL e2 384 144 R0
SYMATTR InstName E545
SYMBOL e2 384 128 R0
SYMATTR InstName E546
SYMBOL e2 384 112 R0
SYMATTR InstName E547
SYMBOL e2 384 80 R0
SYMATTR InstName E548
SYMBOL e2 368 96 R0
SYMATTR InstName E549
SYMBOL e2 384 80 R0
SYMATTR InstName E550
SYMBOL e2 384 96 R0
SYMATTR InstName E551
SYMBOL e2 384 48 R0
SYMATTR InstName E552
SYMBOL e2 384 80 R0
SYMATTR InstName E553
SYMBOL e2 384 64 R0
SYMATTR InstName E554
SYMBOL e2 368 64 R0
SYMATTR InstName E555
SYMBOL e2 368 48 R0
SYMATTR InstName E556
SYMBOL e2 368 32 R0
SYMATTR InstName E557
SYMBOL e2 384 32 R0
SYMATTR InstName E558
SYMBOL e2 384 16 R0
SYMATTR InstName E559
SYMBOL e2 368 0 R0
SYMATTR InstName E560
SYMBOL e2 368 -16 R0
SYMATTR InstName E561
SYMBOL e2 384 -16 R0
SYMATTR InstName E562
SYMBOL e2 384 0 R0
SYMATTR InstName E563
SYMBOL e2 384 -32 R0
SYMATTR InstName E564
SYMBOL e2 368 -48 R0
SYMATTR InstName E565
SYMBOL e2 384 -48 R0
SYMATTR InstName E566
SYMBOL e2 352 -48 R0
SYMATTR InstName E567
SYMBOL e2 352 -64 R0
SYMATTR InstName E568
SYMBOL e2 336 -64 R0
SYMATTR InstName E569
SYMBOL e2 336 -80 R0
SYMATTR InstName E570
SYMBOL e2 320 -80 R0
SYMATTR InstName E571
SYMBOL e2 320 -64 R0
SYMATTR InstName E572
SYMBOL e2 368 -64 R0
SYMATTR InstName E573
SYMBOL e2 368 -80 R0
SYMATTR InstName E574
SYMBOL e2 384 -80 R0
SYMATTR InstName E575
SYMBOL e2 384 -64 R0
SYMATTR InstName E576
SYMBOL e2 288 -64 R0
SYMATTR InstName E577
SYMBOL e2 288 -80 R0
SYMATTR InstName E578
SYMBOL e2 240 -80 R0
SYMATTR InstName E579
SYMBOL e2 224 -80 R0
SYMATTR InstName E580
SYMBOL e2 208 -64 R0
SYMATTR InstName E581
SYMBOL e2 144 -64 R0
SYMATTR InstName E582
SYMBOL e2 96 -64 R0
SYMATTR InstName E583
SYMBOL e2 48 -80 R0
SYMATTR InstName E584
SYMBOL e2 0 -80 R0
SYMATTR InstName E585
SYMBOL e2 -16 -80 R0
SYMATTR InstName E586
SYMBOL e2 48 -64 R0
SYMATTR InstName E587
SYMBOL e2 128 -16 R0
SYMATTR InstName E588
SYMBOL e2 176 64 R0
SYMATTR InstName E589
SYMBOL e2 256 0 R0
SYMATTR InstName E590
SYMBOL e2 352 192 R0
SYMATTR InstName E591
SYMBOL e2 368 144 R0
SYMATTR InstName E592
SYMBOL e2 352 64 R0
SYMATTR InstName E593
SYMBOL e2 352 0 R0
SYMATTR InstName E594
SYMBOL e2 352 -32 R0
SYMATTR InstName E595
SYMBOL e2 256 80 R0
SYMATTR InstName E596
SYMBOL e2 240 96 R0
SYMATTR InstName E597
SYMBOL e2 256 32 R0
SYMATTR InstName E598
SYMBOL e2 240 0 R0
SYMATTR InstName E599
SYMBOL e2 224 -32 R0
SYMATTR InstName E600
SYMBOL e2 192 -32 R0
SYMATTR InstName E601
SYMBOL e2 128 -16 R0
SYMATTR InstName E602
SYMBOL e2 112 -32 R0
SYMATTR InstName E603
SYMBOL e2 80 -48 R0
SYMATTR InstName E604
SYMBOL e2 -16 -96 R0
SYMATTR InstName E605
SYMBOL e2 16 -96 R0
SYMATTR InstName E606
SYMBOL e2 32 -96 R0
SYMATTR InstName E607
SYMBOL e2 48 -96 R0
SYMATTR InstName E608
SYMBOL e2 96 -96 R0
SYMATTR InstName E609
SYMBOL e2 160 -96 R0
SYMATTR InstName E610
SYMBOL e2 144 -96 R0
SYMATTR InstName E611
SYMBOL e2 208 -96 R0
SYMATTR InstName E612
SYMBOL e2 256 -96 R0
SYMATTR InstName E613
SYMBOL e2 304 -96 R0
SYMATTR InstName E614
SYMBOL e2 352 -96 R0
SYMATTR InstName E615
SYMBOL e2 384 -96 R0
SYMATTR InstName E616
SYMBOL e2 368 -96 R0
SYMATTR InstName E617
SYMBOL e2 336 -96 R0
SYMATTR InstName E618
SYMBOL e2 304 -96 R0
SYMATTR InstName E619
SYMBOL e2 288 -96 R0
SYMATTR InstName E620
SYMBOL e2 256 -96 R0
SYMATTR InstName E621
SYMBOL e2 240 -96 R0
SYMATTR InstName E622
SYMBOL e2 208 -96 R0
SYMATTR InstName E623
SYMBOL e2 176 -96 R0
SYMATTR InstName E624
SYMBOL e2 192 -96 R0
SYMATTR InstName E625
SYMBOL e2 80 -96 R0
SYMATTR InstName E626
SYMBOL e2 112 -96 R0
SYMATTR InstName E627
SYMBOL e2 144 -96 R0
SYMATTR InstName E628
SYMBOL e2 48 144 R0
SYMATTR InstName E629
SYMBOL e2 80 160 R0
SYMATTR InstName E630
SYMBOL e2 192 192 R0
SYMATTR InstName E631
SYMBOL e2 176 160 R0
SYMATTR InstName E632
SYMBOL e2 208 128 R0
SYMATTR InstName E633
SYMBOL e2 320 192 R0
SYMATTR InstName E634
SYMBOL e2 272 176 R0
SYMATTR InstName E635
SYMBOL e2 288 144 R0
SYMATTR InstName E636
SYMBOL e2 208 0 R0
SYMATTR InstName E637
SYMBOL e2 224 16 R0
SYMATTR InstName E638
SYMBOL e2 272 16 R0
SYMATTR InstName E639
SYMBOL e2 320 48 R0
SYMATTR InstName E640
SYMBOL e2 320 32 R0
SYMATTR InstName E641
SYMBOL e2 304 64 R0
SYMATTR InstName E642
SYMBOL e2 320 96 R0
SYMATTR InstName E643
SYMBOL e2 336 144 R0
SYMATTR InstName E644
SYMBOL e2 176 -80 R0
SYMATTR InstName E645
SYMBOL e2 192 0 R0
SYMATTR InstName E646
SYMBOL e2 176 32 R0
SYMATTR InstName E647
SYMBOL e2 144 16 R0
SYMATTR InstName E648
SYMBOL e2 240 -16 R0
SYMATTR InstName E649
SYMBOL e2 272 -32 R0
SYMATTR InstName E650
SYMBOL e2 0 -96 R0
SYMATTR InstName E651
SYMBOL e2 -16 -96 R0
SYMATTR InstName E652
SYMBOL e2 64 -64 R0
SYMATTR InstName E653
SYMBOL e2 80 -32 R0
SYMATTR InstName E654
SYMBOL e2 128 128 R0
SYMATTR InstName E655
SYMBOL e2 176 128 R0
SYMATTR InstName E656
SYMBOL e2 208 128 R0
SYMATTR InstName E657
SYMBOL e2 224 80 R0
SYMATTR InstName E658
SYMBOL e2 240 80 R0
SYMATTR InstName E659
SYMBOL e2 256 64 R0
SYMATTR InstName E660
SYMBOL e2 256 48 R0
SYMATTR InstName E661
SYMBOL e2 336 80 R0
SYMATTR InstName E662
SYMBOL e2 352 112 R0
SYMATTR InstName E663
SYMBOL FerriteBead -128 96 R0
SYMATTR InstName L1
SYMBOL FerriteBead -128 160 R0
SYMATTR InstName L2
SYMBOL FerriteBead -128 224 R0
SYMATTR InstName L3
SYMBOL FerriteBead -128 288 R0
SYMATTR InstName L4
SYMBOL FerriteBead -128 32 R0
SYMATTR InstName L5
SYMBOL FerriteBead -128 -32 R0
SYMATTR InstName L6
SYMBOL FerriteBead -128 352 R0
SYMATTR InstName L7
SYMBOL FerriteBead -128 416 R0
SYMATTR InstName L8
SYMBOL FerriteBead -128 -96 R0
SYMATTR InstName L9
SYMBOL FerriteBead -96 448 R90
WINDOW 0 -16 0 VBottom 2